RUNSPEC

METRIC

DIMENS
68  77  76 /

EQLDIMS
3
/

--CVI		=1-20
--shale		=21-40
--CTkz1		=41-67
--shale		=68
--CTkz2		=69-76

OIL
WATER

--MESSAGES
-- --------------- print limit --------------  ---------------- stop limit ----------------
--   mes     com    war     prb    err   bug      mes     com    war     prb    err   bug
--    1       2      3       4      5     6        1       2      3       4      5     6
--   200000  200000 200000   6000    200    1     200000  200000 200000   6000    200    1  /

WELLDIMS
-- MaxWells  MaxCompl  MaxGroups   MaxWellsPerGroup   MaxSeparatorStages
     200        200        50             20             /
TABDIMS
--   1       2      3       4      5      6      7
-- NTSFUN  NTPVT  NSSFUN  NPPVT  NTFIP  NRPVT  unused  NTENDP
     2      3      1*     1*     2*     1*     /
REGDIMS
--    1      2       3       4        5          6           7
--  NTFIP  NMFIPR  NRFREG  NTFREG  maxTRACK  maxCOALNUM  maxOPERNUM
      2     1       1*      1*       1*         1*          1*   /
FAULTDIM
100000 /

ENDSCALE
/

START
 01 'MAR' 1988 /
/


GRID

NEWTRAN

INCLUDE
'GEO_0822/coord.inc' / -- coord

INCLUDE
'GEO_0822/zcorn.inc' / -- zcorn

INCLUDE
'GEO_0822/ntg_0829.inc' / -- NTG

INCLUDE
'GEO_0822/poro_0829.inc' / -- poro

NOECHO

INCLUDE
'GEO_0822/multpv.inc' / -- multpv is non-ones only swat==1 cells

INCLUDE
'GEO_0822/ct_mult_0830.inc' / -- ct permx mult cube (adecuate)

INCLUDE
'INCL/grid_arith_0829_1.inc' / -- grid_arith


COPY
PERMX PERMY /
/

--MINPV
--30
--/

PROPS
DENSITY
912   1140.0000      1.3
/
922   1120.0000      1.3
/
922   1120.0000      1.3
/

PVTW
135 1 4.5e-5 1.57 0
 /
146 1 4.5e-5 1.6 0 -- Corrected viscosity
 /
146 1 4.5e-5 1.6 0 -- Corrected viscosity
 /

PVCDO
135	1.048	6e-5	21.5	2.736e-3
/
146	1.037   6e-5	23.5	2.503e-3
/
146	1.037   6e-5	23.5	2.503e-3
/

SCALECRS
YES
/


SWOF
0.19700	0.000000	0.785850	1.00000
0.22290	0.000000	0.738938	0.17274
0.24880	0.000003	0.692517	0.08633
0.27470	0.000018	0.646610	0.05559
0.30060	0.000063	0.601240	0.04024
0.32650	0.000169	0.556433	0.03117
0.35240	0.000378	0.512221	0.02524
0.37830	0.000744	0.468636	0.02108
0.40420	0.001339	0.425717	0.01801
0.43010	0.002248	0.383508	0.01567
0.45600	0.003573	0.342061	0.01383
0.48190	0.005435	0.301436	0.01235
0.50780	0.007970	0.261705	0.01113
0.53370	0.011335	0.222957	0.01012
0.55960	0.015705	0.185304	0.00926
0.58550	0.021275	0.148891	0.00852
0.61140	0.028262	0.113914	0.00789
0.63730	0.036902	0.080658	0.00733
0.66320	0.047454	0.049584	0.00685
0.68910	0.060198	0.021583	0.00641
0.71500	0.075440	0.000000	0.00603
0.75571	0.207506	0.000000	0.00550
0.79643	0.339605	0.000000	0.00506
0.83714	0.471671	0.000000	0.00467
0.87786	0.603769	0.000000	0.00433
0.91857	0.735835	0.000000	0.00404
0.95929	0.867934	0.000000	0.00378
1.00000	1.000000	0.000000	0.00000
 /
0.31100	0.000000	0.428570	1.00000
0.32625	0.018743	0.426377	0.15085
0.34150	0.020089	0.424078	0.06434
0.35675	0.020920	0.421661	0.03687
0.37200	0.021530	0.419113	0.02437
0.38725	0.022016	0.416416	0.01752
0.40250	0.022421	0.413553	0.01332
0.41775	0.022770	0.410500	0.01053
0.43300	0.023076	0.407227	0.00858
0.44825	0.023349	0.403699	0.00715
0.46350	0.023596	0.399870	0.00607
0.47875	0.023822	0.395679	0.00523
0.49400	0.024031	0.391046	0.00456
0.50925	0.024224	0.385859	0.00402
0.52450	0.024404	0.379957	0.00358
0.53975	0.024573	0.373092	0.00321
0.55500	0.024732	0.364859	0.00290
0.57025	0.024882	0.354512	0.00263
0.58550	0.025025	0.340425	0.00240
0.60075	0.025161	0.317628	0.00221
0.61600	0.025290	0.000000	0.00203
0.67086	0.164542	0.000000	0.00156
0.72571	0.303768	0.000000	0.00124
0.78057	0.443019	0.000000	0.00102
0.83543	0.582271	0.000000	0.00085
0.89029	0.721522	0.000000	0.00073
0.94514	0.860748	0.000000	0.00063
1.00000	1.000000	0.000000	0.00000
 /


ARITHMETIC
SWL(,,1:40) = MAX((42.9+11.835*(PORO*100)-1.5613*(PORO*100)^2+0.06093*(PORO*100)^3-0.000782*(PORO*100)^4)*0.01,0.07)
SWL(,,41:76) = 0.01*(31040*(PORO*100)^-2.97) 
--SWL = (SWL<0.7)*(SWL*(SWL>0)+(SWL<=0)*0.1)+(SWL>=0.7)*0.7 
--SWL = SWL*(SWATINIT >= SWL) + SWATINIT*(SWATINIT < SWL)
SOWCR(,,1:40) = 0.01*(-1.966*LOG(PERMX/1000) + 28.084)
SOWCR(,,41:76) = 0.01*(-1.724 * LOG(PERMX/1000)+33.227) 
--SOWCR=(SOWCR>1)*0.2+(SOWCR<1)*((SOWCR>0)*SOWCR+0.05*(SOWCR<0))
PCW(,,1:40)=21.72973*28*0.318316*((poro/(1.00005E-04*((PORO*100)^5.1)))^0.5)
PCW(,,1:40) = 0.5 * PCW 
PCW(,,41:76)=54.59103*28*0.318316*((poro/(4.02456E-02*EXP(44.17*PORO)))^0.5) 
PCW(,,1:40) = PCW * 4.49
PCW(,,41:76) = PCW * 0.05
KRW = 1 
KRWR(,,1:40) = 0.075440 
KRWR(,,41:76) = 0.025290 
KRWR(,,1:40) = KRWR * 0.1
KRWR(,,41:76) = KRWR * 0.1
SOWCR(,,1:40) = SOWCR * 1
SOWCR(,,41:76) = SOWCR * 0.8
SOWCR(,,68:68) = 0.01
SWL(,,68:68) = 0.8
 /

COPY
 SWL SWCR /
/

ROCK
 135 2.1E-004 
/
 146 2.1E-004 
/
 146 2.1E-004 
/

REGIONS

ARITHMETIC
pvtnum(,,1:40)=1 /
pvtnum(,,41:68)=2 /
pvtnum(,,69:76)=3 /
satnum(,,1:40)=1 /
satnum(,,41:76)=2 /
eqlnum=pvtnum /

fipnum=satnum /
/

SOLUTION

EQUIL
     1099	135   1099    1*     1*    1*    1	1	0	1*   / -- oil bottom of well 2443
     1124.5	146   1124.5    1*     1*    1*    1	1	0	1*   / -- oil bottom of well 91RTM
     1124.5	146   1000    1*     1*    1*    1	1	0	1*   / -- oil bottom of well 91RTM
/

RSVD
1703.5 34.9
1710 34.9
/
1771 99.7
1780 99.7
/
1771 99.7
1780 99.7
/

--AQUCT
------	N	H	P	k	m	cf+cw	Rad  h	angle
--1 1703.5 200 191 0.2 0.000001 3500 16 180 /
--2 1771 206 167 0.18 0.000001 3500 13 180 /
-- /

THPRES
2 3 2 /
 /


SUMMARY
--RPTMAPD
--01 'JAN' 1989	/
--01 'JAN' 1990	/
--01 'JAN' 1991	/
--01 'JAN' 1992	/
--01 'JAN' 1993	/
--01 'JAN' 1994	/
--01 'JAN' 1995	/
--01 'JAN' 1996	/
--01 'JAN' 1997	/
--01 'JAN' 1998	/
--01 'JAN' 1999	/
--01 'JAN' 2000	/
--01 'JAN' 2001	/
--01 'JAN' 2002	/
--01 'JAN' 2003	/
--01 'JAN' 2004	/
--01 'JAN' 2005	/
--01 'JAN' 2006	/
--01 'JAN' 2007	/
--01 'JAN' 2008	/
--01 'JAN' 2009	/
--01 'JAN' 2010	/
--01 'JAN' 2011	/
--01 'JAN' 2012	/
--01 'JAN' 2013	/
--01 'JUN' 2013	/
--/
RECU

Delt 1 month
Rate 1 month EXACT FIELD WELL end
Freq 1  1  1


Array EQUA month end
1/
GENE rest

EFOR WELL 'DD.MM.YYYY' MDL MDU RAD SKIN MULT

EUNI METRes METRes /

HFOR WELL 'DD.MM.YYYY' QOIL QWAT QWIN WEFA THP BHP

HUNI
sm3/day sm3/day ksm3 ksm3 bara /

INCLUDE 
  'INCL\Well.dat' /
INCLUDE 
  'INCL\perf.inc' /
INCLUDE 
  'INCL\WFRP.inc' /
INCLUDE 
  'INCL\event_0829_1.inc' /
INCLUDE 
  'INCL\hist.inc' /

READ 1 JUL 2013 /

STOP
